$ -------------------------------------------------------------------- $
$ WAVEWATCH III Grid preprocessor input file                           $
$ -------------------------------------------------------------------- $
$ Grid name (C*30, in quotes)
$
 'sunda strait - 0.1deg'
$
$ Frequency increment factor and first frequency (Hz) ---------------- $
$ number of frequencies (wavenumbers) and directions, relative offset
$ of first direction in terms of the directional increment [-0.5,0.5].
$ In versions 1.18 and 2.22 of the model this value was by definiton 0,
$ it is added to mitigate the GSE for a first order scheme. Note that
$ this factor is IGNORED in the print plots in ww3_outp.
$
 1.1  0.0418  25  24  0.5
$
$ Set model flags ---------------------------------------------------- $
$  - FLDRY         Dry run (input/output only, no calculation).
$  - FLCX, FLCY    Activate X and Y component of propagation.
$  - FLCTH, FLCK   Activate direction and wavenumber shifts.
$  - FLSOU         Activate source terms.
$
 F T T T T T
$
$ Set time steps ----------------------------------------------------- $
$ - Time step information (this information is always read)
$     maximum global time step, maximum CFL time step for x-y and
$     k-theta, minimum source term time step (all in seconds).
$
 600. 300. 300. 30.
$
$ Start of namelist input section ------------------------------------ $
$
 &SIN4 BETAMAX = 1.37 /
 &MISC CICE0 = 0.25 CICEN = 0.75 FLAGTR = 4 /
 &PRO3 WDTHCG = 4, WDTHTH = 4 /
$
$
$ Mandatory string to identify end of namelist input section.
$
END OF NAMELISTS
$
$ Define grid -------------------------------------------------------- $
$
$ Five records containing :
$
$  1 Type of grid, coordinate system and type of closure: GSTRG, FLAGLL,
$    CSTRG.  Grid closure can only be applied in spherical coordinates.
$      GSTRG  : String indicating type of grid :
$               'RECT'  : rectilinear
$               'CURV'  : curvilinear
$               'UNST'  : unstructured (triangle-based)
$               'SMCG'  : Spherical Multiple-Cell grid.
$      FLAGLL : Flag to indicate coordinate system :
$               T  : Spherical (lon/lat in degrees)
$               F  : Cartesian (meters)
$      CSTRG  : String indicating the type of grid index space closure :
$               'NONE'  : No closure is applied
$               'SMPL'  : Simple grid closure : Grid is periodic in the
$                       : i-index and wraps at i=NX+1. In other words,
$                       : (NX+1,J) => (1,J). A grid with simple closure
$                       : may be rectilinear or curvilinear.
$               'TRPL'  : Tripole grid closure : Grid is periodic in the
$                       : i-index and wraps at i=NX+1 and has closure at
$                       : j=NY+1. In other words, (NX+1,J<=NY) => (1,J)
$                       : and (I,NY+1) => (NX-I+1,NY). Tripole
$                       : grid closure requires that NX be even. A grid
$                       : with tripole closure must be curvilinear.
$  2 NX, NY. As the outer grid lines are always defined as land
$    points, the minimum size is 3x3.
$
$ Branch here based on grid type
$
$ IF ( RECTILINEAR GRID ) THEN
$
$  3 Grid increments SX, SY (degr.or m) and scaling (division) factor.
$    If CSTRG='SMPL', then SX is set to 360/NX.
$  4 Coordinates of (1,1) (degr.) and scaling (division) factor.
$
$ ELSE IF ( CURVILINEAR GRID ) THEN
$
$  3 Unit number of file with x-coordinate.
$    Scale factor and add offset: x <= scale_fac * x_read + add_offset.
$    IDLA, IDFM, format for formatted read, FROM and filename.
$      IDLA : Layout indicator :
$                  1   : Read line-by-line bottom to top.
$                  2   : Like 1, single read statement.
$                  3   : Read line-by-line top to bottom.
$                  4   : Like 3, single read statement.
$      IDFM : format indicator :
$                  1   : Free format.
$                  2   : Fixed format with above format descriptor.
$                  3   : Unformatted.
$      FROM : file type parameter
$               'UNIT' : open file by unit number only.
$               'NAME' : open file by name and assign to unit.
$
$    If the above unit number equals 10, then the x-coord is read from this
$    file.  The x-coord must follow the above record.  No comment lines are
$    allowed within the x-coord input.
$
$  4 Unit number of file with y-coordinate.
$    Scale factor and add offset: y <= scale_fac * y_read + add_offset.
$    IDLA, IDFM, format for formatted read, FROM and filename.
$      IDLA : Layout indicator :
$                  1   : Read line-by-line bottom to top.
$                  2   : Like 1, single read statement.
$                  3   : Read line-by-line top to bottom.
$                  4   : Like 3, single read statement.
$      IDFM : format indicator :
$                  1   : Free format.
$                  2   : Fixed format with above format descriptor.
$                  3   : Unformatted.
$      FROM : file type parameter
$               'UNIT' : open file by unit number only.
$               'NAME' : open file by name and assign to unit.
$
$    If the above unit number equals 10, then the y-coord is read from this
$    file.  The y-coord must follow the above record.  No comment lines are
$    allowed within the y-coord input.
$
$ ELSE IF ( UNSTRUCTURED GRID ) THEN
$   Nothing to declare: all the data will be read from the GMESH file
$ END IF ( CURVILINEAR GRID )
$
$  5 Limiting bottom depth (m) to discriminate between land and sea
$    points, minimum water depth (m) as allowed in model, unit number
$    of file with bottom depths, scale factor for bottom depths (mult.),
$    IDLA, IDFM, format for formatted read, FROM and filename.
$      IDLA : Layout indicator :
$                  1   : Read line-by-line bottom to top.
$                  2   : Like 1, single read statement.
$                  3   : Read line-by-line top to bottom.
$                  4   : Like 3, single read statement.
$      IDFM : format indicator :
$                  1   : Free format.
$                  2   : Fixed format with above format descriptor.
$                  3   : Unformatted.
$      FROM : file type parameter
$               'UNIT' : open file by unit number only.
$               'NAME' : open file by name and assign to unit.
$
$    If the above unit number equals 10, then the bottom depths are read from
$    this file.  The depths must follow the above record.  No comment lines are
$    allowed within the depth input. In the case of unstructured grids, the file
$    is expected to be a GMESH grid file containing node and element lists.
$
$ ------------------------------------------------------------------------
$
 'RECT'  T  'NONE'
  61     61
   0.1    0.1   1.
 102.    -9.    1.
  -0.1    2.50 20  0.001000 1 1 '(....)' NAME 'sunda.depth'
               30  0.010000 1 1 '(....)' NAME 'sunda.obs'
               40           1 1 '(....)' NAME 'sunda.mask'
$
 0. 0. 0. 0. 0
$
$ -------------------------------------------------------------------- $
$ End of input file                                                    $
$ -------------------------------------------------------------------- $
